minlp-notes/research-20261001/scip-set-selection/logs/root/powerflow0014r.effS.s0.log
SCIP version 10.0.3 [precision: 8 byte] [memory: block] [mode: optimized] [LP solver: SoPlex 8.0.3] [GitHash: d409edf9f6]
Copyright (c) 2002-2026 Zuse Institute Berlin (ZIB)

External libraries: 
  Readline 8.3         GNU library for command line editing (gnu.org/s/readline)
  SoPlex 8.0.3         Linear programming solver developed at Zuse Institute Berlin (soplex.zib.de) [GitHash: 13e2ab24]
  CppAD 20180000.0     Algorithmic Differentiation of C++ algorithms developed by B. Bell (github.com/coin-or/CppAD)
  ZLIB 1.3.2           General purpose compression library by J. Gailly and M. Adler (zlib.net)
  LAPACK 3.12.0        General Linear Algebra PACKage (http://www.netlib.org/lapack/)
  MPFR 4.2.2           GNU Multiple Precision Floating-Point Reliable Library (mpfr.org)
  Boost 1.85.0         Boost C++ Libraries (boost.org)
  TinyCThread 1.2      small portable implementation of the C11 threads API (tinycthread.github.io)
  GMP 6.3.0            GNU Multiple Precision Arithmetic Library developed by T. Granlund (gmplib.org)
  AMPL/MP 4.0.4        AMPL .nl file reader library (github.com/ampl/mp)
  Nauty 2.8.8          Computing Graph Automorphism Groups by Brendan D. McKay (users.cecs.anu.edu.au/~bdm/nauty)
  sassy 2.1            Symmetry preprocessor by Markus Anders (github.com/markusa4/sassy)

user parameter file <scip.set> not found - using default parameters

table/nlhdlr_quadratic/active = TRUE
limits/memory = 6000
limits/time = 120
timing/clocktype = 1
nlhdlr/quadratic/useintersectioncuts = TRUE
nlhdlr/quadratic/usestrengthening = TRUE
nlhdlr/quadratic/setrule = 2
limits/nodes = 1

read problem </workspace/local-home/.cache/minlplib/minlplib/osil/powerflow0014r.osil>
============

original problem has 119 variables (0 bin, 0 int, 119 cont) and 198 constraints

presolving:
(round 1, fast)       15 del vars, 69 del conss, 0 add conss, 366 chg bounds, 0 chg sides, 0 chg coeffs, 0 upgd conss, 0 impls, 0 clqs, 0 implints
(round 2, fast)       15 del vars, 71 del conss, 0 add conss, 394 chg bounds, 0 chg sides, 0 chg coeffs, 0 upgd conss, 0 impls, 0 clqs, 0 implints
   (0.0s) symmetry computation started: requiring (bin +, int +, cont +), (fixed: bin -, int -, cont -)
   (0.0s) no symmetry present (symcode time: 0.00)
presolving (3 rounds: 3 fast, 1 medium, 1 exhaustive):
 15 deleted vars, 71 deleted constraints, 0 added constraints, 394 tightened bounds, 0 added holes, 0 changed sides, 0 changed coefficients
 0 implications, 0 cliques, 0 implied integral variables (0 bin, 0 int, 0 cont)
presolved problem has 104 variables (0 bin, 0 int, 104 cont) and 113 constraints
     18 constraints of type <linear>
     95 constraints of type <nonlinear>
Presolving Time: 0.02

 time | node  | left  |LP iter|LP it/n|mem/heur|mdpt |vars |cons |rows |cuts |sepa|confs|strbr|  dualbound   | primalbound  |  gap   | compl. 
  0.0s|     1 |     0 |   226 |     - |  4317k |   0 | 306 | 113 | 333 |   0 |  0 |   0 |   0 |-1.000000e-09 |      --      |    Inf | unknown
  0.1s|     1 |     0 |   278 |     - |  5740k |   0 | 306 | 113 | 352 |  19 |  1 |   0 |   0 |-1.000000e-09 |      --      |    Inf | unknown
  0.3s|     1 |     0 |   324 |     - |  6233k |   0 | 306 | 113 | 371 |  38 |  2 |   0 |   0 |-1.000000e-09 |      --      |    Inf | unknown
  0.7s|     1 |     0 |   406 |     - |  7054k |   0 | 306 | 113 | 389 |  56 |  3 |   0 |   0 |-1.000000e-09 |      --      |    Inf | unknown
  1.0s|     1 |     0 |   506 |     - |  7379k |   0 | 306 | 113 | 404 |  71 |  4 |   0 |   0 |-1.000000e-09 |      --      |    Inf | unknown
  1.6s|     1 |     0 |   587 |     - |  7460k |   0 | 306 | 113 | 423 |  90 |  5 |   0 |   0 |-1.000000e-09 |      --      |    Inf | unknown
  1.9s|     1 |     0 |   656 |     - |  8619k |   0 | 306 | 113 | 441 | 108 |  6 |   0 |   0 |-1.000000e-09 |      --      |    Inf | unknown
  2.6s|     1 |     0 |   719 |     - |  8653k |   0 | 306 | 113 | 458 | 125 |  7 |   0 |   0 |-1.000000e-09 |      --      |    Inf | unknown
  3.4s|     1 |     0 |   762 |     - |  8653k |   0 | 306 | 113 | 473 | 140 |  8 |   0 |   0 |-1.000000e-09 |      --      |    Inf | unknown
  4.0s|     1 |     0 |   803 |     - |    10M |   0 | 306 | 113 | 487 | 154 |  9 |   0 |   0 |-1.000000e-09 |      --      |    Inf | unknown
  4.9s|     1 |     0 |   871 |     - |    10M |   0 | 306 | 113 | 298 | 170 | 10 |   0 |   0 |-1.000000e-09 |      --      |    Inf | unknown
  6.1s|     1 |     0 |   967 |     - |    10M |   0 | 306 | 113 | 311 | 183 | 11 |   0 |   0 |-1.000000e-09 |      --      |    Inf | unknown
  8.1s|     1 |     0 | 15429 |     - |    11M |   0 | 306 | 113 | 408 | 316 | 11 |   0 |   0 |-1.000000e-09 |      --      |    Inf | unknown
  9.2s|     1 |     0 | 15489 |     - |    12M |   0 | 306 | 113 | 426 | 334 | 12 |   0 |   0 |-1.000000e-09 |      --      |    Inf | unknown
 10.0s|     1 |     0 | 15508 |     - |    14M |   0 | 306 | 113 | 516 | 424 | 13 |   0 |   0 |-1.000000e-09 |      --      |    Inf | unknown
 time | node  | left  |LP iter|LP it/n|mem/heur|mdpt |vars |cons |rows |cuts |sepa|confs|strbr|  dualbound   | primalbound  |  gap   | compl. 
 11.1s|     1 |     0 | 15544 |     - |    15M |   0 | 306 | 113 | 533 | 441 | 14 |   0 |   0 |-1.000000e-09 |      --      |    Inf | unknown
 12.3s|     1 |     0 | 15576 |     - |    18M |   0 | 306 | 113 | 637 | 545 | 15 |   0 |   0 |-1.000000e-09 |      --      |    Inf | unknown
 13.2s|     1 |     0 | 15614 |     - |    18M |   0 | 306 | 113 | 654 | 562 | 16 |   0 |   0 |-1.000000e-09 |      --      |    Inf | unknown
 14.0s|     1 |     0 | 15634 |     - |    22M |   0 | 306 | 113 | 669 | 660 | 17 |   0 |   0 |-1.000000e-09 |      --      |    Inf | unknown
 15.1s|     1 |     0 | 15665 |     - |    22M |   0 | 306 | 113 | 685 | 676 | 18 |   0 |   0 |-1.000000e-09 |      --      |    Inf | unknown
 16.8s|     1 |     0 | 15695 |     - |    24M |   0 | 306 | 113 | 788 | 779 | 19 |   0 |   0 |-1.000000e-09 |      --      |    Inf | unknown
 17.6s|     1 |     0 | 15737 |     - |    24M |   0 | 306 | 113 | 803 | 794 | 20 |   0 |   0 |-1.000000e-09 |      --      |    Inf | unknown
 17.7s|     1 |     0 | 15763 |     - |    25M |   0 | 306 | 113 | 824 | 815 | 21 |   0 |   0 |-1.000000e-09 |      --      |    Inf | unknown
 17.8s|     1 |     0 | 15805 |     - |    25M |   0 | 306 | 113 | 842 | 833 | 22 |   0 |   0 |-1.000000e-09 |      --      |    Inf | unknown
 17.8s|     1 |     0 | 15820 |     - |    25M |   0 | 306 | 113 | 569 | 839 | 23 |   0 |   0 |-1.000000e-09 |      --      |    Inf | unknown
 17.8s|     1 |     0 | 15855 |     - |    25M |   0 | 306 | 113 | 583 | 853 | 24 |   0 |   0 |-1.000000e-09 |      --      |    Inf | unknown
 17.8s|     1 |     0 | 15868 |     - |    25M |   0 | 306 | 113 | 594 | 864 | 25 |   0 |   0 |-1.000000e-09 |      --      |    Inf | unknown
 17.8s|     1 |     0 | 15910 |     - |    25M |   0 | 306 | 113 | 610 | 880 | 26 |   0 |   0 |-1.000000e-09 |      --      |    Inf | unknown
 17.8s|     1 |     0 | 15939 |     - |    25M |   0 | 306 | 113 | 625 | 895 | 27 |   0 |   0 |-1.000000e-09 |      --      |    Inf | unknown
 17.8s|     1 |     0 | 16006 |     - |    25M |   0 | 306 | 113 | 640 | 910 | 28 |   0 |   0 |-1.000000e-09 |      --      |    Inf | unknown
 time | node  | left  |LP iter|LP it/n|mem/heur|mdpt |vars |cons |rows |cuts |sepa|confs|strbr|  dualbound   | primalbound  |  gap   | compl. 
 17.8s|     1 |     0 | 16021 |     - |    25M |   0 | 306 | 113 | 296 | 915 | 29 |   0 |   0 |-1.000000e-09 |      --      |    Inf | unknown
 17.8s|     1 |     0 | 16060 |     - |    25M |   0 | 306 | 113 | 309 | 928 | 30 |   0 |   0 |-1.000000e-09 |      --      |    Inf | unknown
 17.8s|     1 |     0 | 16072 |     - |    25M |   0 | 306 | 113 | 316 | 935 | 31 |   0 |   0 |-1.000000e-09 |      --      |    Inf | unknown
 17.8s|     1 |     0 | 16112 |     - |    25M |   0 | 306 | 113 | 331 | 950 | 32 |   0 |   0 |-1.000000e-09 |      --      |    Inf | unknown
 17.8s|     1 |     0 | 16142 |     - |    25M |   0 | 306 | 113 | 340 | 959 | 33 |   0 |   0 |-1.000000e-09 |      --      |    Inf | unknown
 17.8s|     1 |     0 | 16221 |     - |    25M |   0 | 306 | 113 | 355 | 974 | 34 |   0 |   0 |-1.000000e-09 |      --      |    Inf | unknown
 17.8s|     1 |     0 | 16282 |     - |    25M |   0 | 306 | 113 | 282 | 994 | 35 |   0 |   0 |-1.000000e-09 |      --      |    Inf | unknown
 17.8s|     1 |     0 | 16340 |     - |    25M |   0 | 306 | 113 | 299 |1011 | 36 |   0 |   0 |-1.000000e-09 |      --      |    Inf | unknown
 17.8s|     1 |     0 | 16376 |     - |    25M |   0 | 306 | 113 | 310 |1022 | 37 |   0 |   0 |-1.000000e-09 |      --      |    Inf | unknown
 17.8s|     1 |     0 | 16572 |     - |    25M |   0 | 306 | 113 | 325 |1037 | 38 |   0 |   0 | 3.761684e+02 |      --      |    Inf | unknown
 17.8s|     1 |     0 | 16624 |     - |    25M |   0 | 306 | 113 | 359 |1071 | 39 |   0 |   0 | 6.798553e+02 |      --      |    Inf | unknown
 17.8s|     1 |     0 | 16682 |     - |    25M |   0 | 306 | 113 | 373 |1085 | 40 |   0 |   0 | 9.042525e+02 |      --      |    Inf | unknown
 17.8s|     1 |     0 | 16698 |     - |    25M |   0 | 306 | 113 | 327 |1095 | 41 |   0 |   0 | 9.196261e+02 |      --      |    Inf | unknown
 17.8s|     1 |     0 | 16806 |     - |    25M |   0 | 306 | 113 | 346 |1114 | 42 |   0 |   0 | 2.311646e+03 |      --      |    Inf | unknown
 17.8s|     1 |     0 | 16821 |     - |    25M |   0 | 306 | 113 | 366 |1134 | 43 |   0 |   0 | 2.450499e+03 |      --      |    Inf | unknown
 time | node  | left  |LP iter|LP it/n|mem/heur|mdpt |vars |cons |rows |cuts |sepa|confs|strbr|  dualbound   | primalbound  |  gap   | compl. 
 17.9s|     1 |     0 | 16883 |     - |    25M |   0 | 306 | 113 | 383 |1151 | 44 |   0 |   0 | 3.141677e+03 |      --      |    Inf | unknown
 17.9s|     1 |     0 | 16902 |     - |    25M |   0 | 306 | 113 | 399 |1167 | 45 |   0 |   0 | 3.160088e+03 |      --      |    Inf | unknown
 17.9s|     1 |     0 | 16989 |     - |    25M |   0 | 306 | 113 | 417 |1185 | 46 |   0 |   0 | 3.424010e+03 |      --      |    Inf | unknown
 17.9s|     1 |     0 | 16996 |     - |    25M |   0 | 306 | 113 | 364 |1193 | 47 |   0 |   0 | 3.425444e+03 |      --      |    Inf | unknown
 17.9s|     1 |     0 | 17077 |     - |    25M |   0 | 306 | 113 | 383 |1212 | 48 |   0 |   0 | 3.650457e+03 |      --      |    Inf | unknown
 17.9s|     1 |     0 | 17108 |     - |    25M |   0 | 306 | 113 | 391 |1220 | 49 |   0 |   0 | 3.661747e+03 |      --      |    Inf | unknown
 17.9s|     1 |     0 | 17222 |     - |    25M |   0 | 306 | 113 | 410 |1239 | 50 |   0 |   0 | 3.982823e+03 |      --      |    Inf | unknown
 17.9s|     1 |     0 | 17232 |     - |    25M |   0 | 306 | 113 | 419 |1248 | 51 |   0 |   0 | 3.986412e+03 |      --      |    Inf | unknown
 17.9s|     1 |     0 | 17299 |     - |    25M |   0 | 306 | 113 | 436 |1265 | 52 |   0 |   0 | 4.071892e+03 |      --      |    Inf | unknown
 17.9s|     1 |     0 | 17304 |     - |    25M |   0 | 306 | 113 | 362 |1270 | 53 |   0 |   0 | 4.071968e+03 |      --      |    Inf | unknown
 17.9s|     1 |     0 | 17353 |     - |    25M |   0 | 306 | 113 | 377 |1285 | 54 |   0 |   0 | 4.369549e+03 |      --      |    Inf | unknown
 17.9s|     1 |     0 | 17371 |     - |    25M |   0 | 306 | 113 | 383 |1291 | 55 |   0 |   0 | 4.378203e+03 |      --      |    Inf | unknown
 17.9s|     1 |     0 | 17439 |     - |    25M |   0 | 306 | 113 | 401 |1309 | 56 |   0 |   0 | 4.576658e+03 |      --      |    Inf | unknown
 17.9s|     1 |     0 | 17446 |     - |    25M |   0 | 306 | 113 | 412 |1320 | 57 |   0 |   0 | 4.578429e+03 |      --      |    Inf | unknown
 17.9s|     1 |     0 | 17480 |     - |    25M |   0 | 306 | 113 | 428 |1336 | 58 |   0 |   0 | 4.708452e+03 |      --      |    Inf | unknown
 time | node  | left  |LP iter|LP it/n|mem/heur|mdpt |vars |cons |rows |cuts |sepa|confs|strbr|  dualbound   | primalbound  |  gap   | compl. 
 17.9s|     1 |     0 | 17486 |     - |    25M |   0 | 306 | 113 | 349 |1341 | 59 |   0 |   0 | 4.708775e+03 |      --      |    Inf | unknown
 17.9s|     1 |     0 | 17557 |     - |    25M |   0 | 306 | 113 | 365 |1357 | 60 |   0 |   0 | 5.779589e+03 |      --      |    Inf | unknown
 17.9s|     1 |     0 | 17563 |     - |    25M |   0 | 306 | 113 | 373 |1365 | 61 |   0 |   0 | 5.793803e+03 |      --      |    Inf | unknown
 17.9s|     1 |     0 | 17634 |     - |    25M |   0 | 306 | 113 | 391 |1383 | 62 |   0 |   0 | 5.862190e+03 |      --      |    Inf | unknown
 17.9s|     1 |     0 | 17639 |     - |    25M |   0 | 306 | 113 | 396 |1388 | 63 |   0 |   0 | 5.878408e+03 |      --      |    Inf | unknown
 17.9s|     1 |     0 | 17751 |     - |    25M |   0 | 306 | 113 | 412 |1404 | 64 |   0 |   0 | 6.112145e+03 |      --      |    Inf | unknown
 17.9s|     1 |     0 | 17756 |     - |    25M |   0 | 306 | 113 | 348 |1415 | 65 |   0 |   0 | 6.112963e+03 |      --      |    Inf | unknown
 17.9s|     1 |     0 | 17827 |     - |    25M |   0 | 306 | 113 | 365 |1432 | 66 |   0 |   0 | 6.148221e+03 |      --      |    Inf | unknown
 17.9s|     1 |     0 | 17832 |     - |    25M |   0 | 306 | 113 | 370 |1437 | 67 |   0 |   0 | 6.148389e+03 |      --      |    Inf | unknown
 17.9s|     1 |     0 | 17911 |     - |    25M |   0 | 306 | 113 | 390 |1457 | 68 |   0 |   0 | 6.165796e+03 |      --      |    Inf | unknown
 17.9s|     1 |     0 | 17920 |     - |    25M |   0 | 306 | 113 | 400 |1467 | 69 |   0 |   0 | 6.166348e+03 |      --      |    Inf | unknown
 17.9s|     1 |     0 | 17984 |     - |    25M |   0 | 306 | 113 | 413 |1480 | 70 |   0 |   0 | 6.265377e+03 |      --      |    Inf | unknown
 17.9s|     1 |     0 | 17995 |     - |    25M |   0 | 306 | 113 | 344 |1485 | 71 |   0 |   0 | 6.266418e+03 |      --      |    Inf | unknown
 17.9s|     1 |     0 | 18048 |     - |    25M |   0 | 306 | 113 | 361 |1502 | 72 |   0 |   0 | 6.343232e+03 |      --      |    Inf | unknown
 17.9s|     1 |     0 | 18057 |     - |    25M |   0 | 306 | 113 | 369 |1510 | 73 |   0 |   0 | 6.343695e+03 |      --      |    Inf | unknown
 time | node  | left  |LP iter|LP it/n|mem/heur|mdpt |vars |cons |rows |cuts |sepa|confs|strbr|  dualbound   | primalbound  |  gap   | compl. 
 17.9s|     1 |     0 | 18093 |     - |    25M |   0 | 306 | 113 | 389 |1530 | 74 |   0 |   0 | 6.378375e+03 |      --      |    Inf | unknown
 17.9s|     1 |     0 | 18098 |     - |    25M |   0 | 306 | 113 | 393 |1534 | 75 |   0 |   0 | 6.378600e+03 |      --      |    Inf | unknown
 17.9s|     1 |     0 | 18219 |     - |    25M |   0 | 306 | 113 | 409 |1550 | 76 |   0 |   0 | 6.491562e+03 |      --      |    Inf | unknown
 17.9s|     1 |     0 | 18228 |     - |    25M |   0 | 306 | 113 | 343 |1555 | 77 |   0 |   0 | 6.494104e+03 |      --      |    Inf | unknown
 17.9s|     1 |     0 | 18308 |     - |    25M |   0 | 306 | 113 | 362 |1574 | 78 |   0 |   0 | 6.842607e+03 |      --      |    Inf | unknown
 17.9s|     1 |     0 | 18337 |     - |    25M |   0 | 306 | 113 | 373 |1585 | 79 |   0 |   0 | 6.881451e+03 |      --      |    Inf | unknown
 17.9s|     1 |     0 | 18374 |     - |    25M |   0 | 306 | 113 | 390 |1602 | 80 |   0 |   0 | 6.889458e+03 |      --      |    Inf | unknown
 17.9s|     1 |     0 | 18378 |     - |    25M |   0 | 306 | 113 | 394 |1606 | 81 |   0 |   0 | 6.890184e+03 |      --      |    Inf | unknown
 18.0s|     1 |     0 | 18418 |     - |    25M |   0 | 306 | 113 | 413 |1625 | 82 |   0 |   0 | 6.937498e+03 |      --      |    Inf | unknown
 18.0s|     1 |     0 | 18423 |     - |    25M |   0 | 306 | 113 | 349 |1630 | 83 |   0 |   0 | 6.937610e+03 |      --      |    Inf | unknown
 18.0s|     1 |     0 | 18457 |     - |    25M |   0 | 306 | 113 | 365 |1646 | 84 |   0 |   0 | 6.969735e+03 |      --      |    Inf | unknown
 18.0s|     1 |     0 | 18461 |     - |    25M |   0 | 306 | 113 | 369 |1650 | 85 |   0 |   0 | 6.969767e+03 |      --      |    Inf | unknown
 18.0s|     1 |     0 | 18484 |     - |    25M |   0 | 306 | 113 | 388 |1669 | 86 |   0 |   0 | 6.977191e+03 |      --      |    Inf | unknown
 18.0s|     1 |     0 | 18487 |     - |    25M |   0 | 306 | 113 | 391 |1672 | 87 |   0 |   0 | 6.977193e+03 |      --      |    Inf | unknown
 18.0s|     1 |     0 | 18572 |     - |    25M |   0 | 306 | 113 | 406 |1687 | 88 |   0 |   0 | 7.068346e+03 |      --      |    Inf | unknown
 time | node  | left  |LP iter|LP it/n|mem/heur|mdpt |vars |cons |rows |cuts |sepa|confs|strbr|  dualbound   | primalbound  |  gap   | compl. 
 18.0s|     1 |     0 | 18574 |     - |    25M |   0 | 306 | 113 | 330 |1689 | 89 |   0 |   0 | 7.068498e+03 |      --      |    Inf | unknown
 18.0s|     1 |     0 | 18613 |     - |    25M |   0 | 306 | 113 | 344 |1703 | 90 |   0 |   0 | 7.132874e+03 |      --      |    Inf | unknown
 18.0s|     1 |     0 | 18614 |     - |    25M |   0 | 306 | 113 | 346 |1705 | 91 |   0 |   0 | 7.132919e+03 |      --      |    Inf | unknown
 18.0s|     1 |     0 | 18670 |     - |    25M |   0 | 306 | 113 | 367 |1726 | 92 |   0 |   0 | 7.139677e+03 |      --      |    Inf | unknown
 18.0s|     1 |     0 | 18672 |     - |    25M |   0 | 306 | 113 | 369 |1728 | 93 |   0 |   0 | 7.139737e+03 |      --      |    Inf | unknown
 18.0s|     1 |     0 | 18738 |     - |    25M |   0 | 306 | 113 | 386 |1745 | 94 |   0 |   0 | 7.243521e+03 |      --      |    Inf | unknown
 18.0s|     1 |     0 | 18777 |     - |    25M |   0 | 306 | 113 | 332 |1758 | 95 |   0 |   0 | 7.246962e+03 |      --      |    Inf | unknown
 18.0s|     1 |     0 | 18813 |     - |    25M |   0 | 306 | 113 | 351 |1777 | 96 |   0 |   0 | 7.269694e+03 |      --      |    Inf | unknown
 18.0s|     1 |     0 | 18824 |     - |    25M |   0 | 306 | 113 | 360 |1786 | 97 |   0 |   0 | 7.270019e+03 |      --      |    Inf | unknown
 18.0s|     1 |     0 | 18853 |     - |    25M |   0 | 306 | 113 | 380 |1806 | 98 |   0 |   0 | 7.272376e+03 |      --      |    Inf | unknown
 18.0s|     1 |     0 | 18856 |     - |    25M |   0 | 306 | 113 | 384 |1810 | 99 |   0 |   0 | 7.272390e+03 |      --      |    Inf | unknown
 18.0s|     1 |     0 | 18901 |     - |    25M |   0 | 306 | 113 | 401 |1827 |100 |   0 |   0 | 7.283568e+03 |      --      |    Inf | unknown
 18.0s|     1 |     0 | 18908 |     - |    25M |   0 | 306 | 113 | 339 |1830 |101 |   0 |   0 | 7.283610e+03 |      --      |    Inf | unknown
 18.0s|     1 |     0 | 18945 |     - |    25M |   0 | 306 | 113 | 355 |1846 |102 |   0 |   0 | 7.298883e+03 |      --      |    Inf | unknown
 18.0s|     1 |     0 | 18948 |     - |    25M |   0 | 306 | 113 | 357 |1848 |103 |   0 |   0 | 7.298884e+03 |      --      |    Inf | unknown
 time | node  | left  |LP iter|LP it/n|mem/heur|mdpt |vars |cons |rows |cuts |sepa|confs|strbr|  dualbound   | primalbound  |  gap   | compl. 
 18.0s|     1 |     0 | 19056 |     - |    25M |   0 | 306 | 113 | 373 |1864 |104 |   0 |   0 | 7.309313e+03 |      --      |    Inf | unknown
 18.0s|     1 |     0 | 19059 |     - |    25M |   0 | 306 | 113 | 375 |1866 |105 |   0 |   0 | 7.309316e+03 |      --      |    Inf | unknown
 18.0s|     1 |     0 | 19152 |     - |    25M |   0 | 306 | 113 | 393 |1884 |106 |   0 |   0 | 7.330280e+03 |      --      |    Inf | unknown
 18.0s|     1 |     0 | 19175 |     - |    25M |   0 | 306 | 113 | 343 |1892 |107 |   0 |   0 | 7.330646e+03 |      --      |    Inf | unknown
 18.0s|     1 |     0 | 19201 |     - |    25M |   0 | 306 | 113 | 362 |1911 |108 |   0 |   0 | 7.332839e+03 |      --      |    Inf | unknown
 18.0s|     1 |     0 | 19202 |     - |    25M |   0 | 306 | 113 | 363 |1912 |109 |   0 |   0 | 7.332840e+03 |      --      |    Inf | unknown
 18.0s|     1 |     0 | 19293 |     - |    25M |   0 | 306 | 113 | 376 |1925 |110 |   0 |   0 | 7.345808e+03 |      --      |    Inf | unknown
 18.0s|     1 |     0 | 19296 |     - |    25M |   0 | 306 | 113 | 378 |1927 |111 |   0 |   0 | 7.346059e+03 |      --      |    Inf | unknown
 18.0s|     1 |     0 | 19336 |     - |    25M |   0 | 306 | 113 | 398 |1947 |112 |   0 |   0 | 7.349753e+03 |      --      |    Inf | unknown
 18.0s|     1 |     0 | 19337 |     - |    25M |   0 | 306 | 113 | 336 |1949 |113 |   0 |   0 | 7.349889e+03 |      --      |    Inf | unknown
 18.0s|     1 |     0 | 19407 |     - |    25M |   0 | 306 | 113 | 355 |1968 |114 |   0 |   0 | 7.399255e+03 |      --      |    Inf | unknown
 18.0s|     1 |     0 | 19415 |     - |    25M |   0 | 306 | 113 | 361 |1974 |115 |   0 |   0 | 7.400198e+03 |      --      |    Inf | unknown
 18.0s|     1 |     0 | 19470 |     - |    25M |   0 | 306 | 113 | 380 |1993 |116 |   0 |   0 | 7.412895e+03 |      --      |    Inf | unknown
 18.0s|     1 |     0 | 19475 |     - |    25M |   0 | 306 | 113 | 386 |1999 |117 |   0 |   0 | 7.413051e+03 |      --      |    Inf | unknown
 18.0s|     1 |     0 | 19532 |     - |    25M |   0 | 306 | 113 | 404 |2017 |118 |   0 |   0 | 7.419628e+03 |      --      |    Inf | unknown
 time | node  | left  |LP iter|LP it/n|mem/heur|mdpt |vars |cons |rows |cuts |sepa|confs|strbr|  dualbound   | primalbound  |  gap   | compl. 
 18.0s|     1 |     0 | 19542 |     - |    25M |   0 | 306 | 113 | 342 |2020 |119 |   0 |   0 | 7.419631e+03 |      --      |    Inf | unknown
 18.0s|     1 |     0 | 19602 |     - |    25M |   0 | 306 | 113 | 358 |2036 |120 |   0 |   0 | 7.428017e+03 |      --      |    Inf | unknown
 18.0s|     1 |     0 | 19622 |     - |    25M |   0 | 306 | 113 | 364 |2042 |121 |   0 |   0 | 7.428429e+03 |      --      |    Inf | unknown
 18.1s|     1 |     0 | 19686 |     - |    25M |   0 | 306 | 113 | 382 |2060 |122 |   0 |   0 | 7.431139e+03 |      --      |    Inf | unknown
 18.1s|     1 |     0 | 19688 |     - |    25M |   0 | 306 | 113 | 384 |2062 |123 |   0 |   0 | 7.431140e+03 |      --      |    Inf | unknown
 18.1s|     1 |     0 | 19745 |     - |    25M |   0 | 306 | 113 | 401 |2079 |124 |   0 |   0 | 7.432715e+03 |      --      |    Inf | unknown
 18.1s|     1 |     0 | 19746 |     - |    25M |   0 | 306 | 113 | 345 |2080 |125 |   0 |   0 | 7.432716e+03 |      --      |    Inf | unknown
 18.1s|     1 |     0 | 19824 |     - |    25M |   0 | 306 | 113 | 357 |2092 |126 |   0 |   0 | 7.472125e+03 |      --      |    Inf | unknown
 18.1s|     1 |     0 | 19826 |     - |    25M |   0 | 306 | 113 | 359 |2094 |127 |   0 |   0 | 7.472126e+03 |      --      |    Inf | unknown
 18.1s|     1 |     0 | 19889 |     - |    25M |   0 | 306 | 113 | 373 |2108 |128 |   0 |   0 | 7.496263e+03 |      --      |    Inf | unknown
 18.1s|     1 |     0 | 19900 |     - |    25M |   0 | 306 | 113 | 376 |2111 |129 |   0 |   0 | 7.496616e+03 |      --      |    Inf | unknown
 18.1s|     1 |     0 | 20103 |     - |    25M |   0 | 306 | 113 | 387 |2122 |130 |   0 |   0 | 7.567735e+03 |      --      |    Inf | unknown
 18.1s|     1 |     0 | 20108 |     - |    25M |   0 | 306 | 113 | 320 |2126 |131 |   0 |   0 | 7.567741e+03 |      --      |    Inf | unknown
 18.1s|     1 |     0 | 20124 |     - |    25M |   0 | 306 | 113 | 334 |2140 |132 |   0 |   0 | 7.568986e+03 |      --      |    Inf | unknown
 18.1s|     1 |     0 | 20125 |     - |    25M |   0 | 306 | 113 | 336 |2142 |133 |   0 |   0 | 7.568986e+03 |      --      |    Inf | unknown
 time | node  | left  |LP iter|LP it/n|mem/heur|mdpt |vars |cons |rows |cuts |sepa|confs|strbr|  dualbound   | primalbound  |  gap   | compl. 
 18.1s|     1 |     0 | 20165 |     - |    25M |   0 | 306 | 113 | 350 |2156 |134 |   0 |   0 | 7.571776e+03 |      --      |    Inf | unknown
 18.1s|     1 |     0 | 20167 |     - |    25M |   0 | 306 | 113 | 353 |2159 |135 |   0 |   0 | 7.571778e+03 |      --      |    Inf | unknown
 18.1s|     1 |     0 | 20242 |     - |    25M |   0 | 306 | 113 | 369 |2175 |136 |   0 |   0 | 7.584591e+03 |      --      |    Inf | unknown
 18.1s|     1 |     0 | 20244 |     - |    25M |   0 | 306 | 113 | 321 |2177 |137 |   0 |   0 | 7.584592e+03 |      --      |    Inf | unknown
 18.1s|     1 |     0 | 20280 |     - |    25M |   0 | 306 | 113 | 338 |2194 |138 |   0 |   0 | 7.589131e+03 |      --      |    Inf | unknown
 18.1s|     1 |     0 | 20283 |     - |    25M |   0 | 306 | 113 | 341 |2197 |139 |   0 |   0 | 7.589133e+03 |      --      |    Inf | unknown
 18.1s|     1 |     0 | 20321 |     - |    25M |   0 | 306 | 113 | 355 |2211 |140 |   0 |   0 | 7.599584e+03 |      --      |    Inf | unknown
 18.1s|     1 |     0 | 20323 |     - |    25M |   0 | 306 | 113 | 357 |2213 |141 |   0 |   0 | 7.599586e+03 |      --      |    Inf | unknown
 18.1s|     1 |     0 | 20339 |     - |    25M |   0 | 306 | 113 | 372 |2228 |142 |   0 |   0 | 7.599796e+03 |      --      |    Inf | unknown
 18.1s|     1 |     0 | 20340 |     - |    25M |   0 | 306 | 113 | 319 |2229 |143 |   0 |   0 | 7.599797e+03 |      --      |    Inf | unknown
 18.1s|     1 |     0 | 20378 |     - |    25M |   0 | 306 | 113 | 332 |2242 |144 |   0 |   0 | 7.602047e+03 |      --      |    Inf | unknown
 18.1s|     1 |     0 | 20384 |     - |    25M |   0 | 306 | 113 | 340 |2250 |145 |   0 |   0 | 7.602048e+03 |      --      |    Inf | unknown
 18.1s|     1 |     0 | 20427 |     - |    25M |   0 | 306 | 113 | 355 |2265 |146 |   0 |   0 | 7.604138e+03 |      --      |    Inf | unknown
 18.1s|     1 |     0 | 20431 |     - |    25M |   0 | 306 | 113 | 357 |2267 |147 |   0 |   0 | 7.604312e+03 |      --      |    Inf | unknown
 18.1s|     1 |     0 | 20523 |     - |    25M |   0 | 306 | 113 | 371 |2281 |148 |   0 |   0 | 7.614340e+03 |      --      |    Inf | unknown
 time | node  | left  |LP iter|LP it/n|mem/heur|mdpt |vars |cons |rows |cuts |sepa|confs|strbr|  dualbound   | primalbound  |  gap   | compl. 
 18.1s|     1 |     0 | 20525 |     - |    25M |   0 | 306 | 113 | 323 |2283 |149 |   0 |   0 | 7.614438e+03 |      --      |    Inf | unknown
 18.1s|     1 |     0 | 20545 |     - |    25M |   0 | 306 | 113 | 339 |2299 |150 |   0 |   0 | 7.614730e+03 |      --      |    Inf | unknown
 18.1s|     1 |     0 | 20550 |     - |    25M |   0 | 306 | 113 | 342 |2302 |151 |   0 |   0 | 7.614742e+03 |      --      |    Inf | unknown
 18.1s|     1 |     0 | 20592 |     - |    25M |   0 | 306 | 113 | 354 |2314 |152 |   0 |   0 | 7.625363e+03 |      --      |    Inf | unknown
 18.1s|     1 |     0 | 20596 |     - |    25M |   0 | 306 | 113 | 358 |2318 |153 |   0 |   0 | 7.625370e+03 |      --      |    Inf | unknown
 18.1s|     1 |     0 | 20640 |     - |    25M |   0 | 306 | 113 | 377 |2337 |154 |   0 |   0 | 7.625842e+03 |      --      |    Inf | unknown
 18.1s|     1 |     0 | 20643 |     - |    25M |   0 | 306 | 113 | 334 |2340 |155 |   0 |   0 | 7.625843e+03 |      --      |    Inf | unknown
 18.1s|     1 |     0 | 20718 |     - |    25M |   0 | 306 | 113 | 349 |2355 |156 |   0 |   0 | 7.638528e+03 |      --      |    Inf | unknown
 18.1s|     1 |     0 | 20721 |     - |    25M |   0 | 306 | 113 | 351 |2357 |157 |   0 |   0 | 7.638529e+03 |      --      |    Inf | unknown
 18.1s|     1 |     0 | 20816 |     - |    25M |   0 | 306 | 113 | 368 |2374 |158 |   0 |   0 | 7.644976e+03 |      --      |    Inf | unknown
 18.1s|     1 |     0 | 20832 |     - |    25M |   0 | 306 | 113 | 371 |2377 |159 |   0 |   0 | 7.645923e+03 |      --      |    Inf | unknown
 18.1s|     1 |     0 | 20903 |     - |    25M |   0 | 306 | 113 | 385 |2391 |160 |   0 |   0 | 7.653863e+03 |      --      |    Inf | unknown
 18.1s|     1 |     0 | 20904 |     - |    25M |   0 | 306 | 113 | 342 |2392 |161 |   0 |   0 | 7.653863e+03 |      --      |    Inf | unknown
 18.1s|     1 |     0 | 20968 |     - |    25M |   0 | 306 | 113 | 356 |2406 |162 |   0 |   0 | 7.697219e+03 |      --      |    Inf | unknown
 18.1s|     1 |     0 | 20971 |     - |    25M |   0 | 306 | 113 | 358 |2408 |163 |   0 |   0 | 7.697222e+03 |      --      |    Inf | unknown
 time | node  | left  |LP iter|LP it/n|mem/heur|mdpt |vars |cons |rows |cuts |sepa|confs|strbr|  dualbound   | primalbound  |  gap   | compl. 
 18.1s|     1 |     0 | 21034 |     - |    25M |   0 | 306 | 113 | 372 |2422 |164 |   0 |   0 | 7.698365e+03 |      --      |    Inf | unknown
 18.1s|     1 |     0 | 21035 |     - |    25M |   0 | 306 | 113 | 373 |2423 |165 |   0 |   0 | 7.698365e+03 |      --      |    Inf | unknown
 18.1s|     1 |     0 | 21230 |     - |    25M |   0 | 306 | 113 | 387 |2437 |166 |   0 |   0 | 7.702138e+03 |      --      |    Inf | unknown
 18.1s|     1 |     0 | 21231 |     - |    25M |   0 | 306 | 113 | 327 |2438 |167 |   0 |   0 | 7.702138e+03 |      --      |    Inf | unknown
 18.1s|     1 |     0 | 21278 |     - |    25M |   0 | 306 | 113 | 341 |2452 |168 |   0 |   0 | 7.705565e+03 |      --      |    Inf | unknown
 18.1s|     1 |     2 | 21278 |     - |    25M |   0 | 306 | 113 | 341 |2452 |169 |   0 |   0 | 7.705565e+03 |      --      |    Inf | unknown

SCIP Status        : solving was interrupted [node limit reached]
Solving Time (sec) : 18.14
Solving Nodes      : 1
Primal Bound       : +1.00000000000000e+20 (0 solutions)
Dual Bound         : +7.70556467871463e+03
Gap                : infinite


SCIP Status        : solving was interrupted [node limit reached]
Total Time         :      18.15
  solving          :      18.14
  presolving       :       0.02 (included in solving)
  reading          :       0.01
  copying          :       0.01 (1 #copies) (minimal 0.01, maximal 0.01, average 0.01)
Original Problem   :
  Problem name     : powerflow0014r
  Variables        : 119 (0 binary, 0 integer, 119 continuous)
  Implied int vars : 0 (0 binary, 0 integer, 0 continuous)
  Constraints      : 198 initial, 198 maximal
  Objective        : minimize, 6 non-zeros (abs.min = 1, abs.max = 4000)
Presolved Problem  :
  Problem name     : t_powerflow0014r
  Variables        : 306 (0 binary, 0 integer, 306 continuous)
  Implied int vars : 0 (0 binary, 0 integer, 0 continuous)
  Constraints      : 113 initial, 113 maximal
  Objective        : minimize, 6 non-zeros (abs.min = 1, abs.max = 4000)
  Nonzeros         : 491 constraint, 0 clique table
Presolvers         :   ExecTime  SetupTime  Calls  FixedVars   AggrVars   ChgTypes  ChgBounds   AddHoles    DelCons    AddCons   ChgSides   ChgCoefs
  boundshift       :       0.00       0.00      0          0          0          0          0          0          0          0          0          0
  convertinttobin  :       0.00       0.00      0          0          0          0          0          0          0          0          0          0
  domcol           :       0.00       0.00      1          0          0          0          0          0          0          0          0          0
  dualagg          :       0.00       0.00      0          0          0          0          0          0          0          0          0          0
  dualcomp         :       0.00       0.00      1          0          0          0          0          0          0          0          0          0
  dualinfer        :       0.00       0.00      0          0          0          0          0          0          0          0          0          0
  dualsparsify     :       0.00       0.00      1          0          0          0          0          0          0          0          0          0
  gateextraction   :       0.00       0.00      0          0          0          0          0          0          0          0          0          0
  implics          :       0.00       0.00      1          0          0          0          0          0          0          0          0          0
  implint          :       0.00       0.00      0          0          0          0          0          0          0          0          0          0
  inttobinary      :       0.00       0.00      0          0          0          0          0          0          0          0          0          0
  qpkktref         :       0.00       0.00      0          0          0          0          0          0          0          0          0          0
  redvub           :       0.00       0.00      0          0          0          0          0          0          0          0          0          0
  sparsify         :       0.00       0.00      1          0          0          0          0          0          0          0          0          0
  stuffing         :       0.00       0.00      0          0          0          0          0          0          0          0          0          0
  trivial          :       0.00       0.00      3          0          0          0          0          0          0          0          0          0
  tworowbnd        :       0.00       0.00      0          0          0          0          0          0          0          0          0          0
  dualfix          :       0.00       0.00      3          0          0          0          0          0          0          0          0          0
  genvbounds       :       0.00       0.00      0          0          0          0          0          0          0          0          0          0
  probing          :       0.00       0.00      0          0          0          0          0          0          0          0          0          0
  pseudoobj        :       0.00       0.00      0          0          0          0          0          0          0          0          0          0
  symmetry         :       0.00       0.00      1          0          0          0          0          0          0          0          0          0
  vbounds          :       0.00       0.00      0          0          0          0          0          0          0          0          0          0
  linear           :       0.00       0.00      4          1         14          0         54          0         31          0          0          0
  nonlinear        :       0.02       0.00      5          0          0          0        340          0         40          0          0          0
  components       :       0.00       0.00      1          0          0          0          0          0          0          0          0          0
  root node        :          -          -      -          0          -          -        189          -          -          -          -          -
Constraints        :     Number  MaxNumber  #Separate #Propagate    #EnfoLP    #EnfoRelax  #EnfoPS    #Check   #ResProp    Cutoffs    DomReds       Cuts    Applied      Conss   Children
  integral         :          0          0          0          0          0          0          0          9          0          0          0          0          0          0          0
  linear           :         18         18         90        120          0          0          0          9          0          0          0          0          0          0          0
  nonlinear        :         95         95         90        120         80          0          0          1          0         28          0       2957       1126          0          2
  fixedvar         :          0          0          0          0          0          0          0          0          0          0          0          0          0          0          0
  countsols        :          0          0          0          0          0          0          0          0          0          0          0          0          0          0          0
  components       :          0          0          0          0          0          0          0          0          0          0          0          0          0          0          0
Constraint Timings :  TotalTime  SetupTime   Separate  Propagate     EnfoLP     EnfoPS     EnfoRelax   Check    ResProp    SB-Prop
  integral         :       0.00       0.00       0.00       0.00       0.00       0.00       0.00       0.00       0.00       0.00
  linear           :       0.00       0.00       0.00       0.00       0.00       0.00       0.00       0.00       0.00       0.00
  nonlinear        :      17.10       0.00      11.19       0.02       5.89       0.00       0.00       0.00       0.00       0.00
  fixedvar         :       0.00       0.00       0.00       0.00       0.00       0.00       0.00       0.00       0.00       0.00
  countsols        :       0.00       0.00       0.00       0.00       0.00       0.00       0.00       0.00       0.00       0.00
  components       :       0.00       0.00       0.00       0.00       0.00       0.00       0.00       0.00       0.00       0.00
Propagators        : #Propagate   #ResProp    Cutoffs    DomReds
  dualfix          :          1          0          0          0
  genvbounds       :          0          0          0          0
  nlobbt           :          0          0          0          0
  obbt             :        162          0          0          0
  probing          :          0          0          0          0
  pseudoobj        :          0          0          0          0
  redcost          :          0          0          0          0
  rootredcost      :          0          0          0          0
  symmetry         :          0          0          0          0
  vbounds          :          0          0          0          0
Propagator Timings :  TotalTime  SetupTime   Presolve  Propagate    ResProp    SB-Prop
  dualfix          :       0.00       0.00       0.00       0.00       0.00       0.00
  genvbounds       :       0.00       0.00       0.00       0.00       0.00       0.00
  nlobbt           :       0.00       0.00       0.00       0.00       0.00       0.00
  obbt             :       0.64       0.00       0.00       0.64       0.00       0.00
  probing          :       0.00       0.00       0.00       0.00       0.00       0.00
  pseudoobj        :       0.00       0.00       0.00       0.00       0.00       0.00
  redcost          :       0.00       0.00       0.00       0.00       0.00       0.00
  rootredcost      :       0.00       0.00       0.00       0.00       0.00       0.00
  symmetry         :       0.00       0.00       0.00       0.00       0.00       0.00
  vbounds          :       0.00       0.00       0.00       0.00       0.00       0.00
Conflict Analysis  :       Time      Calls    Success    DomReds  Conflicts   Literals    Reconvs ReconvLits   Dualrays   Nonzeros   LP Iters   (pool size: [--,--])
  propagation      :       0.00          0          0          -          0        0.0          0        0.0          -          -          -
  infeasible LP    :       0.00          0          0          -          0        0.0          0        0.0          0        0.0          0
  bound exceed. LP :       0.00          0          0          -          0        0.0          0        0.0          0        0.0          0
  strong branching :       0.00          0          0          -          0        0.0          0        0.0          -          -          0
  pseudo solution  :       0.00          0          0          -          0        0.0          0        0.0          -          -          -
  applied globally :       0.00          -          -          0          0        0.0          -          -          0          -          -
  applied locally  :          -          -          -          0          0        0.0          -          -          0          -          -
Gen. Resolution CA :       Time      Calls    Success  Conflicts  LargeCoef  LongConfs    Length
  propagation      :       0.00          0          0          0          0          0       0.0
Separators         :   ExecTime  SetupTime      Calls  RootCalls    Cutoffs    DomReds  FoundCuts ViaPoolAdd  DirectAdd    Applied ViaPoolApp  DirectApp      Conss
  cut pool         :       0.00          -          0          0          -          -          0          0          -          -          -          -          -    (maximal pool size:          0)
  aggregation      :       0.00       0.00          0          0          0          0          0          0          0          0          0          0          0
  > cmir           :          -          -          -          -          -          -          -          0          0          0          0          0          -
  > flowcover      :          -          -          -          -          -          -          -          0          0          0          0          0          -
  > knapsackcover  :          -          -          -          -          -          -          -          0          0          0          0          0          -
  cgmip            :       0.00       0.00          0          0          0          0          0          0          0          0          0          0          0
  clique           :       0.00       0.00          0          0          0          0          0          0          0          0          0          0          0
  closecuts        :       0.00       0.00          0          0          0          0          0          0          0          0          0          0          0
  convexproj       :       0.00       0.00          0          0          0          0          0          0          0          0          0          0          0
  disjunctive      :       0.00       0.00          0          0          0          0          0          0          0          0          0          0          0
  eccuts           :       0.00       0.00          0          0          0          0          0          0          0          0          0          0          0
  flower           :       0.00       0.00         90         90          0          0          0          0          0          0          0          0          0
  gauge            :       0.00       0.00          0          0          0          0          0          0          0          0          0          0          0
  gomory           :       0.00       0.00          0          0          0          0          0          0          0          0          0          0          0
  > gomorymi       :          -          -          -          -          -          -          -          0          0          0          0          0          -
  > strongcg       :          -          -          -          -          -          -          -          0          0          0          0          0          -
  impliedbounds    :       0.00       0.00          0          0          0          0          0          0          0          0          0          0          0
  interminor       :       0.00       0.00          0          0          0          0          0          0          0          0          0          0          0
  intobj           :       0.00       0.00          0          0          0          0          0          0          0          0          0          0          0
  lagromory        :       0.00       0.00          0          0          0          0          0          0          0          0          0          0          0
  mcf              :       0.00       0.00          0          0          0          0          0          0          0          0          0          0          0
  minor            :       0.05       0.00         90         90          0          0       5540          0       5540       1326          0       1326          0
  mixing           :       0.00       0.00         90         90          0          0          0          0          0          0          0          0          0
  oddcycle         :       0.00       0.00          0          0          0          0          0          0          0          0          0          0          0
  rapidlearning    :       0.00       0.00          0          0          0          0          0          0          0          0          0          0          0
  rlt              :       0.00       0.00         10         10          0          0          0          0          0          0          0          0          0
  zerohalf         :       0.00       0.00          0          0          0          0          0          0          0          0          0          0          0
Cutselectors       :   ExecTime  SetupTime      Calls  RootCalls   Selected     Forced   Filtered  RootSelec   RootForc   RootFilt 
  hybrid           :       0.00       0.00         90         90       1481          0       6033       1481          0       6033
  ensemble         :       0.00       0.00          0          0          0          0          0          0          0          0
  dynamic          :       0.00       0.00          0          0          0          0          0          0          0          0
Pricers            :   ExecTime  SetupTime      Calls       Vars
  problem variables:       0.00          -          0          0
Branching Rules    :   ExecTime  SetupTime   BranchLP  BranchExt   BranchPS    Cutoffs    DomReds       Cuts      Conss   Children
  allfullstrong    :       0.00       0.00          0          0          0          0          0          0          0          0
  cloud            :       0.00       0.00          0          0          0          0          0          0          0          0
  distribution     :       0.00       0.00          0          0          0          0          0          0          0          0
  fullstrong       :       0.00       0.00          0          0          0          0          0          0          0          0
  gomory           :       0.00       0.00          0          0          0          0          0          0          0          0
  inference        :       0.00       0.00          0          0          0          0          0          0          0          0
  leastinf         :       0.00       0.00          0          0          0          0          0          0          0          0
  lookahead        :       0.00       0.00          0          0          0          0          0          0          0          0
  mostinf          :       0.00       0.00          0          0          0          0          0          0          0          0
  multaggr         :       0.00       0.00          0          0          0          0          0          0          0          0
  nodereopt        :       0.00       0.00          0          0          0          0          0          0          0          0
  pscost           :       0.00       0.00          0          0          0          0          0          0          0          0
  random           :       0.00       0.00          0          0          0          0          0          0          0          0
  relpscost        :       0.00       0.00          0          0          0          0          0          0          0          0
  vanillafullstrong:       0.00       0.00          0          0          0          0          0          0          0          0
Primal Heuristics  :   ExecTime  SetupTime      Calls      Found       Best
  LP solutions     :       0.00          -          -          0          0
  relax solutions  :       0.00          -          -          0          0
  pseudo solutions :       0.00          -          -          0          0
  strong branching :       0.00          -          -          0          0
  actconsdiving    :       0.00       0.00          0          0          0
  adaptivediving   :       0.00       0.00          0          0          0
  alns             :       0.01       0.00          1          0          0
  bound            :       0.00       0.00          0          0          0
  clique           :       0.00       0.00          0          0          0
  coefdiving       :       0.00       0.00          0          0          0
  completesol      :       0.00       0.00          0          0          0
  conflictdiving   :       0.00       0.00          0          0          0
  crossover        :       0.00       0.00          0          0          0
  dins             :       0.00       0.00          0          0          0
  distributiondivin:       0.00       0.00          0          0          0
  dks              :       0.00       0.00          0          0          0
  dps              :       0.00       0.00          0          0          0
  dualval          :       0.00       0.00          0          0          0
  farkasdiving     :       0.00       0.00          0          0          0
  feaspump         :       0.00       0.00          0          0          0
  fixandinfer      :       0.00       0.00          0          0          0
  fracdiving       :       0.00       0.00          0          0          0
  gins             :       0.00       0.00          0          0          0
  guideddiving     :       0.00       0.00          0          0          0
  indicator        :       0.00       0.00          0          0          0
  indicatordiving  :       0.00       0.00          0          0          0
  intdiving        :       0.00       0.00          0          0          0
  intshifting      :       0.00       0.00          0          0          0
  linesearchdiving :       0.00       0.00          0          0          0
  localbranching   :       0.00       0.00          0          0          0
  locks            :       0.00       0.00          0          0          0
  lpface           :       0.00       0.00          0          0          0
  mpec             :       0.00       0.00          0          0          0
  multistart       :       0.00       0.00          0          0          0
  mutation         :       0.00       0.00          0          0          0
  nlpdiving        :       0.00       0.00          0          0          0
  objpscostdiving  :       0.00       0.00          0          0          0
  octane           :       0.00       0.00          0          0          0
  ofins            :       0.00       0.00          0          0          0
  oneopt           :       0.00       0.00          0          0          0
  padm             :       0.00       0.00          0          0          0
  proximity        :       0.00       0.00          0          0          0
  pscostdiving     :       0.00       0.00          0          0          0
  randrounding     :       0.00       0.00          0          0          0
  rens             :       0.00       0.00          0          0          0
  reoptsols        :       0.00       0.00          0          0          0
  repair           :       0.00       0.00          0          0          0
  rins             :       0.00       0.00          0          0          0
  rootsoldiving    :       0.00       0.00          0          0          0
  rounding         :       0.00       0.00          0          0          0
  scheduler        :       0.00       0.00          0          0          0
  shiftandpropagate:       0.00       0.00          0          0          0
  shifting         :       0.00       0.00          0          0          0
  simplerounding   :       0.00       0.00          0          0          0
  subnlp           :       0.00       0.00          0          0          0
  trivial          :       0.00       0.00          2          0          0
  trivialnegation  :       0.00       0.00          0          0          0
  trustregion      :       0.00       0.00          0          0          0
  trysol           :       0.00       0.00          0          0          0
  twoopt           :       0.00       0.00          0          0          0
  undercover       :       0.04       0.00          1          0          0
  vbounds          :       0.00       0.00          0          0          0
  veclendiving     :       0.00       0.00          0          0          0
  zeroobj          :       0.00       0.00          0          0          0
  zirounding       :       0.00       0.00          0          0          0
  other solutions  :          -          -          -          0          -
LNS (Scheduler)    :      Calls  SetupTime  SolveTime SolveNodes       Sols       Best       Exp3    Exp3-IX  EpsGreedy        UCB TgtFixRate  Opt  Inf Node Stal  Sol  Usr Othr Actv
  zeroobjective    :          0       0.00       0.00          0          0          0    0.00000    1.00000   -1.00000    1.00000      0.900    0    0    0    0    0    0    0    1
  rens             :          0       0.00       0.00          0          0          0    0.00000    0.00000   -1.00000    1.00000      0.900    0    0    0    0    0    0    0    0
  rins             :          0       0.00       0.00          0          0          0    0.00000    0.00000   -1.00000    1.00000      0.900    0    0    0    0    0    0    0    0
  mutation         :          0       0.00       0.00          0          0          0    0.00000    0.00000   -1.00000    1.00000      0.900    0    0    0    0    0    0    0    0
  localbranching   :          0       0.00       0.00          0          0          0    0.00000    0.00000   -1.00000    1.00000      0.900    0    0    0    0    0    0    0    0
  crossover        :          0       0.00       0.00          0          0          0    0.00000    0.00000   -1.00000    1.00000      0.900    0    0    0    0    0    0    0    0
  proximity        :          0       0.00       0.00          0          0          0    0.00000    0.00000   -1.00000    1.00000      0.900    0    0    0    0    0    0    0    0
  dins             :          0       0.00       0.00          0          0          0    0.00000    0.00000   -1.00000    1.00000      0.900    0    0    0    0    0    0    0    0
  trustregion      :          0       0.00       0.00          0          0          0    0.00000    0.00000   -1.00000    1.00000      0.900    0    0    0    0    0    0    0    0
Expressions        :   #IntEval  IntEvalTi   #RevProp  RevPropTi    DomReds    Cutoffs  #Estimate  EstimTime  Branching  #Simplify SimplifyTi Simplified
  pow              :       4127       0.00        549       0.00        298          0      15199       0.02       1927        656       0.00         14
  prod             :       1372       0.00         88       0.00         19          0      29533       0.01       6078        816       0.00         24
  sum              :       2278       0.00       1462       0.00        417          0         96       0.00          0        402       0.00        119
  val              :          0       0.00          0       0.00          0          0          0       0.00          0          0       0.00          0
  var              :       6727       0.00          0       0.00          0          0          0       0.00          0       2426       0.01         42
Nlhdlrs            :    Detects  DetectAll DetectTime   #IntEval  IntEvalTi   #RevProp  RevPropTi    DomReds    Cutoffs   #Enforce   EnfoTime       Cuts  Branching
  soc              :          0          0       0.00          0       0.00          0       0.00          0          0          0       0.00          0          0
  convex           :          0          0       0.00          0       0.00          0       0.00          0          0          0       0.00          0          0
  concave          :          0          0       0.00          0       0.00          0       0.00          0          0          0       0.00          0          0
  signomial        :          0          0       0.00          0       0.00          0       0.00          0          0          0       0.00          0          0
  quotient         :          0          0       0.00          0       0.00          0       0.00          0          0          0       0.00          0          0
  quadratic        :         93        447       0.01       5487       0.02       5058       0.00       2066         19      15767      16.89       1850          0
  default          :        333       1366       0.00       6968       0.00       2411       0.00        734          1      44725       0.11       1107          0
  bilinear         :         76         76       0.00        796       0.00         68       0.00          0          0      29014       0.01          0          0
  perspective      :          0          0       0.00          0       0.00          0       0.00          0          0          0       0.00          0          0
Quadratic Nlhdlr   :    GenCuts    AddCuts  CouldImpr   NLargeRE AbrtBadRay AbrtPosPhi AbrtNonBas  NStrength  NMonoidal AveCutcoef    AveMonoidalImprov AveDensity AveEfficacy AveBCutsFrac 
  Quadratic Nlhdlr :       1860       1850          0         10         47          0          0        879          0   0.924331                   -1   0.469826   0.098967          0
Quadratic SetSel   :       Rule      Calls    Changed   Fallback      Evals    AveGain IntercutTime   SelectTime    Applied     Active   RootAppl
  Quadratic SetSel :          2       1609       1513         33      37342    1.02847      16.7000       0.8300        448          0        448
LP                 :       Time      Calls Iterations  Iter/call   Iter/sec  Time-0-It Calls-0-It
  primal LP        :       0.01         28          0       0.00       0.00       0.01         28
  dual LP          :       0.24        170       6896      40.56   28733.33       0.00          0
  lex dual LP      :       0.00          0          0       0.00          -
  barrier LP       :       0.00          0          0       0.00          -       0.00          0
  resolve instable :       0.00          0          0       0.00          -
  diving/probing LP:       0.63        209      14382      68.81   22828.57
  strong branching :       0.00          0          0       0.00          -          -          -          0
    (at root node) :          -          0          0       0.00          -
  conflict analysis:       0.00          0          0       0.00          -
NLP relaxation     :
  solve time       :       0.00 (0 calls)
  convexity        :  nonconvex (18 linear rows, 1 convex ineq., 0 nonconvex ineq., 94 nonlinear eq. or two-sided ineq.)
Relaxators         :       Time      Calls    Cutoffs ImprBounds   ImprTime ReducedDom  Separated AddedConss
  benders          :       0.00          0          0          0       0.00          0          0          0
B&B Tree           :
  number of runs   :          1
  nodes            :          1 (1 internal, 0 leaves)
  feasible leaves  :          0
  infeas. leaves   :          0
  objective leaves :          0
  nodes (total)    :          1 (1 internal, 0 leaves)
  nodes left       :          2
  max depth        :          0
  max depth (total):          0
  backtracks       :          0 (0.0%)
  early backtracks :          0 (0.0%)
  nodes exc. ref.  :          0 (0.0%)
  delayed cutoffs  :          0
  repropagations   :          0 (0 domain reductions, 0 cutoffs)
  avg switch length:       1.00
  switching time   :       0.00
Root Node          :
  First LP value   : -1.00000000000000e-09
  First LP Iters   :        226
  First LP Time    :       0.00
  Final Dual Bound : +7.70556467871463e+03
  Final Root Iters :       6900
  Root LP Estimate : +7.70556467871463e+03
Solution           :
  Solutions found  :          0 (0 improvements)
  Primal Bound     :          -
  Dual Bound       : +7.70556467871463e+03
  Gap              :   infinite
Integrals          :      Total       Avg%
  primal-dual      :    1814.00     100.00
  primal-ref       :          -          - (not evaluated)
  dual-ref         :          -          - (not evaluated)



@@ wallclock 18.41 returncode 0
